Version 4
SHEET 1 1368 1048
WIRE 640 -96 160 -96
WIRE 640 -64 640 -96
WIRE -16 -16 -208 -16
WIRE 160 -16 160 -96
WIRE 160 -16 -16 -16
WIRE 288 -16 160 -16
WIRE 544 -16 288 -16
WIRE -16 32 -16 -16
WIRE -16 32 -64 32
WIRE 288 32 288 -16
WIRE 352 32 288 32
WIRE 96 48 32 48
WIRE 240 48 96 48
WIRE -208 64 -208 -16
WIRE -64 80 -64 32
WIRE -16 80 -64 80
WIRE 352 80 352 32
WIRE 352 80 288 80
WIRE 544 96 544 -16
WIRE 608 96 544 96
WIRE 544 128 544 96
WIRE -16 160 -16 128
WIRE 96 160 96 48
WIRE 96 160 -16 160
WIRE 608 176 608 96
WIRE 608 176 544 176
WIRE 288 208 288 128
WIRE 320 208 288 208
WIRE 400 208 320 208
WIRE 496 208 496 144
WIRE 496 208 400 208
WIRE -16 272 -16 160
WIRE 288 272 288 208
WIRE 400 272 400 208
WIRE 432 272 400 272
WIRE 544 272 544 224
WIRE 544 272 496 272
WIRE 672 272 544 272
WIRE 736 272 672 272
WIRE 736 288 736 272
WIRE 128 320 -16 320
WIRE 288 320 128 320
WIRE 128 336 128 320
WIRE -64 352 -80 352
WIRE 368 352 336 352
WIRE 736 368 736 352
WIRE 368 384 368 352
WIRE -16 416 -16 368
WIRE 128 416 -16 416
WIRE 288 416 288 368
WIRE 288 416 128 416
WIRE -208 432 -208 144
WIRE -96 432 -208 432
WIRE 544 448 544 272
WIRE 640 448 544 448
WIRE 800 448 640 448
WIRE 896 448 864 448
WIRE 896 464 896 448
WIRE -208 496 -208 432
WIRE 128 496 128 416
WIRE 544 496 544 448
WIRE 640 528 640 448
WIRE -208 544 -256 544
WIRE 144 544 128 544
WIRE 576 544 544 544
WIRE -96 576 -96 432
WIRE -96 576 -160 576
WIRE 80 576 -96 576
WIRE 496 576 80 576
WIRE -256 592 -256 544
WIRE -208 592 -256 592
WIRE 144 592 144 544
WIRE 144 592 128 592
WIRE 576 592 576 544
WIRE 576 592 544 592
WIRE 896 592 896 544
WIRE -208 608 -208 592
WIRE 128 608 128 592
WIRE 544 608 544 592
WIRE -80 640 -80 352
WIRE 640 640 640 608
WIRE 640 640 -80 640
WIRE -80 672 -80 640
FLAG 128 608 0
FLAG -208 608 0
FLAG 544 608 0
FLAG 640 16 0
FLAG 736 368 0
FLAG 672 272 Vout
FLAG 128 336 0
FLAG -80 832 0
FLAG 896 592 0
FLAG 368 544 0
FLAG 320 208 Vdiff
FLAG 896 448 Vout1
SYMBOL cmosn\ (1) -64 272 R0
SYMATTR InstName M3
SYMATTR Value2 l=500nm w=1650nm
SYMBOL cmosn\ (1) 336 272 M0
SYMATTR InstName M4
SYMATTR Value2 l=500nm w=1650nm
SYMBOL current -208 64 R0
WINDOW 123 0 0 Left 0
WINDOW 39 0 0 Left 0
SYMATTR InstName I1
SYMATTR Value 3µ
SYMBOL cmosn\ (1) -160 496 M0
SYMATTR InstName M6
SYMATTR Value2 l=1000nm w=490nm
SYMBOL cmosn\ (1) 496 496 R0
SYMATTR InstName M7
SYMATTR Value2 l=500nm w=11150nm
SYMBOL cap 496 256 R90
WINDOW 0 0 32 VBottom 2
WINDOW 3 32 32 VTop 2
SYMATTR InstName C2
SYMATTR Value 1.8pf
SYMBOL voltage 640 -80 R0
WINDOW 3 24 44 Left 2
WINDOW 123 0 0 Left 0
WINDOW 39 0 0 Left 0
SYMATTR Value 1.8
SYMATTR InstName V1
SYMBOL cmosp\ (1) 32 128 R180
SYMATTR InstName M1
SYMATTR Value2 l=500nm w=4615nm
SYMBOL cmosp\ (1) 240 128 M180
SYMATTR InstName M2
SYMATTR Value2 l=500nm w=4615nm
SYMBOL cmosp\ (1) 496 224 M180
SYMATTR InstName M8
SYMATTR Value2 l=500nm w=42000nm
SYMBOL cap 720 288 R0
SYMATTR InstName C1
SYMATTR Value 5pf
SYMBOL cmosn\ (1) 80 496 R0
SYMATTR InstName M5
SYMATTR Value2 l=500nm w=2450nm
SYMBOL res -96 656 R0
SYMATTR InstName R1
SYMATTR Value 10k
SYMBOL voltage -80 736 R0
WINDOW 123 0 0 Left 0
WINDOW 39 0 0 Left 0
SYMATTR InstName V2
SYMATTR Value 0.9
SYMBOL res 624 512 R0
SYMATTR InstName R2
SYMATTR Value 10k
SYMBOL voltage 368 368 R0
WINDOW 123 0 0 Left 0
WINDOW 39 0 0 Left 0
SYMATTR InstName V3
SYMATTR Value PULSE(0 0.2 0 0.1ns 0.1ns 0.5ms 1ms)
SYMBOL cap 864 432 R90
WINDOW 0 0 32 VBottom 2
WINDOW 3 32 32 VTop 2
SYMATTR InstName C3
SYMATTR Value 100µ
SYMBOL res 880 448 R0
SYMATTR InstName R3
SYMATTR Value 10k
SYMBOL voltage 368 448 R0
WINDOW 123 0 0 Left 0
WINDOW 39 0 0 Left 0
SYMATTR InstName V4
SYMATTR Value 0.9
TEXT 824 176 Left 2 !.include tsmc018.lib
TEXT -528 920 Left 2 !.tran 5ms
